* A simple RC circuit
* R-2R Ladder
R1 1 0 20k
R2 1 4 20k
R3 1 2 10k
R4 2 5 20k
R5 2 3 10k
R6 3 6 20k
V1 4 0 DC 1
V2 5 0 DC 0
V3 6 0 DC 0 
.dc V1 -2 2 0.1
*.tf V[3] V1
.end
